// -*- C++ -*-
// File generated by PyFoam - sorry for the ugliness

FoamFile
{
 version 2.0;
 format ascii;
 class dictionary;
 location "system";
 object controlDict;
}

application simpleFoam;

startFrom latestTime;

startTime 0;

stopAt endTime;

endTime 500;

deltaT 1;

writeControl timeStep;

writeInterval 100;

purgeWrite 0;

writeFormat ascii;

writePrecision 6;

writeCompression no;
timeFormat general;

timePrecision 6;

runTimeModifiable yes;
functions
{
#includeFunc forcesIncompressible
#includeFunc forceCoeffsIncompressible
} 	// ************************************************************************* //

