/*--------------------------------*- C++ -*----------------------------------*\
| =========                 |                                                 |
| \\      /  F ield         | OpenFOAM: The Open Source CFD Toolbox           |
|  \\    /   O peration     | Version:  v2006                                 |
|   \\  /    A nd           | Website:  www.openfoam.com                      |
|    \\/     M anipulation  |                                                 |
\*---------------------------------------------------------------------------*/
FoamFile
{
    version     2.0;
    format      ascii;
    class       dictionary;
    object      fvSolution;
}
// * * * * * * * * * * * * * * * * * * * * * * * * * * * * * * * * * * * * * //

solvers
{
    p
    {
        solver          GAMG;
        smoother        GaussSeidel;
        tolerance       1e-06;
        relTol          0.1;
    }

    "(U|k|omega|nuTilda|gammaInt|ReThetat)"
    {
        solver          smoothSolver;
        smoother        symGaussSeidel;
        tolerance       1e-08;
        relTol          0.1;
        maxIter         50;
    }

    "(epsilon|phit)"
    {
         solver          PBiCGStab;
         preconditioner  DILU;
         tolerance       1e-8;
         relTol          0;
    }

    f
    {
        solver          PBiCGStab;
        preconditioner  DIC;
        tolerance       1e-8;
        relTol          0;
    }
}

SIMPLE
{
    nNonOrthogonalCorrectors 0;
    consistent          true;
}

relaxationFactors
{
    equations
    {
        ".*"            0.9;
        "(gammaInt|ReThetat|k|nuTilda)"    0.8;
        "(phit|f)"      0.7;
        epsilon         0.5;
    }
}


// ************************************************************************* //
